dss/CA744/ca744.dss
Clear

!----------Barramento de Entrada do Circuito--------

New circuit.REDE1 

~ basekv=13.8 Bus1=MT1 pu=1.02 Phases=3 MVAsc1=600e10 MVAsc3=600e10

New LoadShape.COM-Tipo1 npts=1440 minterval=15 csvfile=curvas/COM-Tipo1-SE.txt action = normalize
New LoadShape.COM-Tipo2 npts=1440 minterval=15 csvfile=curvas/COM-Tipo2-SE.txt action = normalize
New LoadShape.COM-Tipo3 npts=1440 minterval=15 csvfile=curvas/COM-Tipo3-SE.txt action = normalize
New LoadShape.COM-Tipo4 npts=1440 minterval=15 csvfile=curvas/COM-Tipo4-SE.txt action = normalize
New LoadShape.COM-Tipo5 npts=1440 minterval=15 csvfile=curvas/COM-Tipo5-SE.txt action = normalize
New LoadShape.COM-Tipo6 npts=1440 minterval=15 csvfile=curvas/COM-Tipo6-SE.txt action = normalize
New LoadShape.COM-Tipo7 npts=1440 minterval=15 csvfile=curvas/COM-Tipo7-SE.txt action = normalize
New LoadShape.COM-Tipo8 npts=1440 minterval=15 csvfile=curvas/COM-Tipo8-SE.txt action = normalize
New LoadShape.COM-Tipo9 npts=1440 minterval=15 csvfile=curvas/COM-Tipo9-SE.txt action = normalize
New LoadShape.COM-Tipo10 npts=1440 minterval=15 csvfile=curvas/COM-Tipo10-SE.txt action = normalize

New LoadShape.RES-Tipo1 npts=1440 minterval=15 csvfile=curvas/RES-Tipo1-SE.txt action = normalize
New LoadShape.RES-Tipo2 npts=1440 minterval=15 csvfile=curvas/RES-Tipo2-SE.txt action = normalize
New LoadShape.RES-Tipo3 npts=1440 minterval=15 csvfile=curvas/RES-Tipo3-SE.txt action = normalize
New LoadShape.RES-Tipo4 npts=1440 minterval=15 csvfile=curvas/RES-Tipo4-SE.txt action = normalize
New LoadShape.RES-Tipo5 npts=1440 minterval=15 csvfile=curvas/RES-Tipo5-SE.txt action = normalize
New LoadShape.RES-Tipo6 npts=1440 minterval=15 csvfile=curvas/RES-Tipo6-SE.txt action = normalize
New LoadShape.RES-Tipo7 npts=1440 minterval=15 csvfile=curvas/RES-Tipo7-SE.txt action = normalize
New LoadShape.RES-Tipo8 npts=1440 minterval=15 csvfile=curvas/RES-Tipo8-SE.txt action = normalize
New LoadShape.RES-Tipo9 npts=1440 minterval=15 csvfile=curvas/RES-Tipo9-SE.txt action = normalize
New LoadShape.RES-Tipo10 npts=1440 minterval=15 csvfile=curvas/RES-Tipo10-SE.txt action = normalize

New LoadShape.IP npts=1440 minterval=15 csvfile=curvas/IP.txt action = normalize


!------------------Shape do gerador FV e cargas resid�ncias -----------------

New loadshape.PVshape1 npts=1440 minterval=1 csvfile=pvperfis/pv_chuva.txt 
New loadshape.PVshape2 npts=1440 minterval=1 csvfile=pvperfis/pv_nubla.txt 
New loadshape.PVshape3 npts=1440 minterval=1 csvfile=pvperfis/pv_variabi.txt action=normalize
New loadshape.PVshape4 npts=1440 minterval=1 csvfile=pvperfis/pv_van2.txt action=normalize
New loadshape.PVshape5 npts=1440 minterval=1 csvfile=pvperfis/pv_ensolafinal3.txt action=normalize


!------------Declara��o dos Cabos--------------

! Condutores n�s

New wiredata.1000000 Runits=km Rac=0.306 GMRunits=m GMRac=0.0055    Radunits=m Diam=0.01431 Emergamps=365 !4/0
New wiredata.1000001 Runits=km Rac=0.975 GMRunits=m GMRac=0.00308   Radunits=m Diam=0.00801 Emergamps=175 !2
New wiredata.1000002 Runits=km Rac=1.551 GMRunits=m GMRac=0.00244   Radunits=m Diam=0.00636 Emergamps=130 !4 
New wiredata.1000003 Runits=km Rac=0.732 GMRunits=m GMRac=0.01395   Radunits=m Diam=0.0279  Emergamps=80   !50mm2
New wiredata.1000004 Runits=km Rac=0.613 GMRunits=m GMRac=0.00388   Radunits=m Diam=0.01011 Emergamps=240   !1/0
New Wiredata.1000005 Runits=km Rac=1.442 GMRunits=m GMRac=0.002334  Radunits=m Diam=0.0060  Emergamps=51  !25mm2 Fase
New Wiredata.1000006 Runits=km Rac=1.442 GMRunits=m GMRac=0.0024118 Radunits=m Diam=0.0062  Emergamps=51  !25mm2 Neutro



New wiredata.1000007 Runits=km Rac=0.3165 GMRunits=m GMRac=0.00481    Radunits=m Diam=0.01326 Emergamps=328 !4/0 OXLIP NEXANS
New wiredata.1000008 Runits=km Rac=0.6375 GMRunits=m GMRac=0.00339    Radunits=m Diam=0.00936 Emergamps=210 !1/0 POPPY NEXANS
New wiredata.1000009 Runits=km Rac=1.0145 GMRunits=m GMRac=0.00269    Radunits=m Diam=0.00741 Emergamps=155 !2   IRIS  NEXANS
New wiredata.1000010 Runits=km Rac=1.6119 GMRunits=m GMRac=0.00588    Radunits=m Diam=0.00588 Emergamps=116 !4   ROSE  NEXANS

! Condutores Isolados

New wiredata.1000011 Runits=km Rdc=0.3424 GMRunits=m Radunits=m Diam=0.01680 Emergamps=230 !120mm2 PE fase  NEXANS/Equatorial Par�
New wiredata.1000012 Runits=km Rdc=0.5787 GMRunits=m Radunits=m Diam=0.01335 Emergamps=190 !70mm2  PE fase  NEXANS/Equatorial Par�
New wiredata.1000013 Runits=km Rdc=0.8327 GMRunits=m Radunits=m Diam=0.01140 Emergamps=152 !50mm2  PE fase  NEXANS/Equatorial Par�
New wiredata.1000014 Runits=km Rdc=1.1201 GMRunits=m Radunits=m Diam=0.01020 Emergamps=126 !35mm2  PE fase  NEXANS/Equatorial Par�
New wiredata.1000015 Runits=km Rdc=1.5390 GMRunits=m Radunits=m Diam=0.00880 Emergamps=104 !25mm2  PE fase  NEXANS/Equatorial Par�

!------Configura��o da geometria dos condutores------

New linegeometry.1-C17130402-ABCN nconds=4.000000 nphases=3.000000
~ cond=1.000000 wire=1000000 units=m x=0 h=8.8
~ cond=2.000000 wire=1000000 units=m x=0 h=8.6
~ cond=3.000000 wire=1000000 units=m x=0 h=8.4
~ cond=4.000000 wire=1000001 units=m x=0 h=9
!Reduce=Yes

New linegeometry.1-C17130410-ABCN nconds=4.000000 nphases=3.000000
~ cond=1.000000 wire=1000000 units=m x=0 h=8.8
~ cond=2.000000 wire=1000000 units=m x=0 h=8.6
~ cond=3.000000 wire=1000000 units=m x=0 h=8.4
~ cond=4.000000 wire=1000004 units=m x=0 h=9
!Reduce=Yes

New linegeometry.2-C17130402-ABCN nconds=4.000000 nphases=3.000000
~ cond=1.000000 wire=1000001 units=m x=0 h=8.8
~ cond=2.000000 wire=1000001 units=m x=0 h=8.6
~ cond=3.000000 wire=1000001 units=m x=0 h=8.4
~ cond=4.000000 wire=1000002 units=m x=0 h=9
!Reduce=Yes

New linegeometry.1-C17130401-ABCN nconds=4.000000 nphases=3.000000
~ cond=1.000000 wire=1000000 units=m x=0 h=8.8
~ cond=2.000000 wire=1000000 units=m x=0 h=8.6
~ cond=3.000000 wire=1000000 units=m x=0 h=8.4
~ cond=4.000000 wire=1000001 units=m x=0 h=9
!Reduce=Yes

New linegeometry.RAMAL nconds=4.000000 nphases=3.000000
~ cond=1.000000 wire=1000003 units=m x=0 h=5.8
~ cond=2.000000 wire=1000003 units=m x=0 h=5.6
~ cond=3.000000 wire=1000003 units=m x=0 h=5.4
~ cond=4.000000 wire=1000003 units=m x=0 h=6
Reduce=Yes

New linegeometry.RAMAL2 nconds=4.000000 nphases=3.000000
~ cond=1.000000 wire=1000005 units=m x=0 h=6.00
~ cond=2.000000 wire=1000005 units=m x=0 h=6.01
~ cond=3.000000 wire=1000005 units=m x=0 h=6.02
~ cond=4.000000 wire=1000006 units=m x=0 h=6.03
Reduce=Yes


! Geometria para condutores NUS


New linegeometry.OXLIP nconds=4.000000 nphases=3.000000
~ cond=1.000000 wire=1000007 units=m x=0 h=6.5
~ cond=2.000000 wire=1000007 units=m x=0 h=6.7
~ cond=3.000000 wire=1000007 units=m x=0 h=6.9
~ cond=4.000000 wire=1000007 units=m x=0 h=7.1
!Reduce=Yes

New linegeometry.POPPY nconds=4.000000 nphases=3.000000
~ cond=1.000000 wire=1000008 units=m x=0 h=6.5
~ cond=2.000000 wire=1000008 units=m x=0 h=6.7
~ cond=3.000000 wire=1000008 units=m x=0 h=6.9
~ cond=4.000000 wire=1000008 units=m x=0 h=7.1
!Reduce=Yes

New linegeometry.IRIS nconds=4.000000 nphases=3.000000
~ cond=1.000000 wire=1000009 units=m x=0 h=6.5
~ cond=2.000000 wire=1000009 units=m x=0 h=6.7
~ cond=3.000000 wire=1000009 units=m x=0 h=6.9
~ cond=4.000000 wire=1000009 units=m x=0 h=7.1
!Reduce=Yes

New linegeometry.ROSE nconds=4.000000 nphases=3.000000
~ cond=1.000000 wire=1000010 units=m x=0 h=6.5
~ cond=2.000000 wire=1000010 units=m x=0 h=6.7
~ cond=3.000000 wire=1000010 units=m x=0 h=6.9
~ cond=4.000000 wire=1000010 units=m x=0 h=7.1
!Reduce=Yes


!Geometria para condutores isolados

New linegeometry.QUAD-120 nconds=4.000000 nphases=3.000000
~ cond=1.000000 wire=1000011 units=m x=0 h=6.00
~ cond=2.000000 wire=1000011 units=m x=0 h=6.05
~ cond=3.000000 wire=1000011 units=m x=0 h=6.10
~ cond=4.000000 wire=1000012 units=m x=0 h=6.15
Reduce=Yes

New linegeometry.QUAD-70 nconds=4.000000 nphases=3.000000
~ cond=1.000000 wire=1000012 units=m x=0 h=6.00
~ cond=2.000000 wire=1000012 units=m x=0 h=6.05
~ cond=3.000000 wire=1000012 units=m x=0 h=6.10
~ cond=4.000000 wire=1000012 units=m x=0 h=6.15
Reduce=Yes

New linegeometry.QUAD-50 nconds=4.000000 nphases=3.000000
~ cond=1.000000 wire=1000013 units=m x=0 h=6.00
~ cond=2.000000 wire=1000013 units=m x=0 h=6.05
~ cond=3.000000 wire=1000013 units=m x=0 h=6.10
~ cond=4.000000 wire=1000013 units=m x=0 h=6.15
Reduce=Yes

New linegeometry.QUAD-35 nconds=4.000000 nphases=3.000000
~ cond=1.000000 wire=1000014 units=m x=0 h=6.00
~ cond=2.000000 wire=1000014 units=m x=0 h=6.05
~ cond=3.000000 wire=1000014 units=m x=0 h=6.10
~ cond=4.000000 wire=1000014 units=m x=0 h=6.15
Reduce=Yes

New linegeometry.QUAD-25 nconds=4.000000 nphases=3.000000
~ cond=1.000000 wire=1000015 units=m x=0 h=6.00
~ cond=2.000000 wire=1000015 units=m x=0 h=6.05
~ cond=3.000000 wire=1000015 units=m x=0 h=6.10
~ cond=4.000000 wire=1000015 units=m x=0 h=6.15
Reduce=Yes

New wiredata.2_AWG_CAA Diam=8.0 GMRac=0.00308 Rac=1.102 Emergamps=175
~ Runits=km Radunits=mm gmrunits=m

New wiredata.43-ABCN Diam=8.0 GMRac=0.00308 Rac=1.102 Emergamps=175 ! 2_AWG_CAA
~ Runits=km Radunits=mm gmrunits=m

New wiredata.4/0_AWG_CAA Diam=14.3 GMRac=0.0055 Rac=0.380 Emergamps=365
~ Runits=km Radunits=mm gmrunits=m

New wiredata.200041-ABCN Diam=14.3 GMRac=0.0055 Rac=0.380 Emergamps=365 ! 4/0_AWG_CAA
~ Runits=km Radunits=mm gmrunits=m

New linegeometry.Poste_4/0 nconds=4.000000 nphases=3.000000
~ cond=1.000000 wire=4/0_AWG_CAA units=m x=0 h=8.00
~ cond=2.000000 wire=4/0_AWG_CAA units=m x=0 h=8.05
~ cond=3.000000 wire=4/0_AWG_CAA units=m x=0 h=8.10
~ cond=4.000000 wire=2_AWG_CAA units=m x=0 h=8.15
Reduce=Yes

New linegeometry.Poste_2_AWG nconds=4.000000 nphases=3.000000
~ cond=1.000000 wire=2_AWG_CAA units=m x=0 h=8.00
~ cond=2.000000 wire=2_AWG_CAA units=m x=0 h=8.05
~ cond=3.000000 wire=2_AWG_CAA units=m x=0 h=8.10
~ cond=4.000000 wire=2_AWG_CAA units=m x=0 h=8.15
Reduce=Yes

New linegeometry.RAMAL22 nconds=4.000000 nphases=3.000000
~ cond=1.000000 wire=1000003 units=m x=0 h=6.1
~ cond=2.000000 wire=1000003 units=m x=0 h=6.2
~ cond=3.000000 wire=1000003 units=m x=0 h=6.3
~ cond=4.000000 wire=1000005 units=m x=0 h=6.4
Reduce=Yes

New linegeometry.QUAD-50 nconds=4.000000 nphases=3.000000
~ cond=1.000000 wire=1000013 units=m x=0 h=6.1
~ cond=2.000000 wire=1000013 units=m x=0 h=6.2
~ cond=3.000000 wire=1000013 units=m x=0 h=6.3
~ cond=4.000000 wire=1000013 units=m x=0 h=6.4
Reduce=Yes

New linegeometry.11-ABCN nconds=4.000000 nphases=3.000000
~ cond=1.000000 wire=1000002 units=m x=0 h=8.8
~ cond=2.000000 wire=1000002 units=m x=0 h=8.6
~ cond=3.000000 wire=1000002 units=m x=0 h=8.4
~ cond=4.000000 wire=1000001 units=m x=0 h=9
Reduce=Yes

New Linecode.4604-ABCN nphases=3  Units=km Emergamps=221
~ Rmatrix=[0.739464 | 0.296197 0.739464 | 0.296197 0.296197 0.739464]
~ Xmatrix=[0.292891 | 0.194992 0.292891 | 0.159408 0.194991 0.292890]
~ Cmatrix=[37.0584  |-14.2316  42.4493  |1.66964  -14.2304  37.0628  ]
~ Cmatrix=[0.000000 | 0.000000 0.000000 | 0.000000 0.000000 0.000000]

New Linecode.4504-ABCN nphases=3  Units=km Emergamps=143
~ Rmatrix=[1.266950 | 0.398811 1.266950 | 0.398811 0.398811 1.266950]
~ Xmatrix=[0.495628 | 0.396758 0.495628 | 0.361393 0.396757 0.495627]
~ Cmatrix=[0.000000 |-13.9703  41.9075  |1.47344  -13.9694  36.6425  ]
!~ Cmatrix=[0.000000 | 0.000000 0.000000 | 0.000000 0.000000 0.000000]

New Linecode.38-ABC nphases=3  Units=km Emergamps=266
~ Rmatrix=[0.326426 | 0.0579849 0.326426 | 0.0579848 0.0579849 0.326426]
~ Xmatrix=[0.930153 | 0.5279610 0.930153 | 0.4756990 0.5279610 0.930153]
~ Cmatrix=[0.000000 | 0.0000000 0.000000 | 0.0000000 0.0000000 0.000000]
!~ Cmatrix=[8.08028  |-2.55582  8.62172  |-1.46875  -2.55582  8.08028  ]

New Linecode.261-ABCN nphases=3  Units=km Emergamps=229
~ Rmatrix=[0.446382 | 0.192914 0.446382 | 0.1929140 0.192914 0.446381]
~ Xmatrix=[0.207868 | 0.112708 0.207868 | 0.0765195 0.112708 0.207867]
~ Cmatrix=[38.2072  |-15.0732  44.0314  |2.17022  -15.0716  38.2131  ]
!~ Cmatrix=[0.000000 | 0.000000 0.000000 | 0.0000000 0.000000 0.000000]

New Linecode.61-ABCN nphases=3  Units=km Emergamps=235
~ Rmatrix=[0.446382 | 0.192914 0.446382 | 0.1929140 0.192914 0.446381]
~ Xmatrix=[0.207868 | 0.112708 0.207868 | 0.0765195 0.112708 0.207867]
~ Cmatrix=[38.2072  |-15.0732  44.0314  |2.17022  -15.0716  38.2131  ]


!---------------Linhas---------------

New line.1743000 		Geometry=11-ABCN Length=36.47603288 Units=m 		Bus1=C110661382	Bus2=C110659649		! 11-ABCN ok

New line.1743001 		Geometry=11-ABCN Length=32.58124931 Units=m 	Bus1=C110659973	Bus2=C110661382			! 11-ABCN  ok

New line.1743002 		Geometry=11-ABCN Length=30.39668456 Units=m 		Bus1=C110659628	Bus2=C110659973		! 11-ABCN  ok

New line.1743003 		Length=37.0317099 Units=m 	Bus1=C110661380	Bus2=C110660993 Linecode=4504-ABCN 	    	! 4504-ABCN ok

New line.1743004 		Length=38.98637617 Units=m 	Bus1=C110661081	Bus2=C110659784 Linecode=261-ABCN		! 261-ABCN ok

New line.1743005 		Geometry=11-ABCN Length=40.78884605 Units=m 	Bus1=C110660247	Bus2=C110660154		! 11-ABCN  o

New line.1743006 		Geometry=11-ABCN Length=35.50691556 Units=m 	Bus1=C110659649	Bus2=C110659732  	! 11-ABCN     o

New line.1743007 		Geometry=Poste_2_AWG Length=31.21874927 Units=m 		Bus1=C110659784	 Bus2=C110659628 	! 43-ABCN ok

New line.1743008 		Length=41.60447966 Units=m 	Bus1=C110660715 Bus2=C110661380 Linecode=4504-ABCN	! 4504-ABCN    k

New line.1743009 		Geometry=11-ABCN Length=39.92269185 Units=m 		Bus1=C110660516	 Bus2=C110660254	! 11-ABCN

New line.1743010 		Geometry=11-ABCN Length=33.04136738 Units=m 		Bus1=C110661379	 Bus2=C110659732	! 11-ABCN

New line.1743011 		Geometry=Poste_2_AWG Length=30.34002173 Units=m 		Bus1=C110661082	 Bus2=C110659785	! 43-ABCN

New line.1743012 		Geometry=11-ABCN Length=38.3023052  Units=m 		Bus1=C110661249	 Bus2=C110661378	! 11-ABCN

New line.1743013 		Length=33.3050868 Units=m 	Bus1=C110660715	 Bus2=C110661134 Linecode = 261-ABCN	! 261-ABCN

New line.1743014 		Geometry=Poste_2_AWG Length=34.95113759 Units=m 	Bus1=C110659784	 Bus2=C110661082	! 43-ABCN o

New line.1743015 		Length=33.898584 Units=m 		Bus1=C110661134	 Bus2=C110660247 Linecode = 261-ABCN	! 261-ABCN

New line.1743016  		Length=40.93029712 Units=m 	Bus1=C110661358	 Bus2=C110660715 Linecode = 261-ABCN 	! 261-ABCN

New line.1743017 		Geometry=11-ABCN Length=37.47961512 Units=m 		Bus1=C110660247	 Bus2=C110661249  	! 11-ABCN

New line.1743018 		Geometry=11-ABCN Length=34.26851496 Units=m 	Bus1=C110661378	 Bus2=C110659731 	! 11-ABCN

New line.1743019 		Geometry=11-ABCN Length=38.75626474 Units=m 		Bus1=C110660254	 Bus2=C110661379	! 11-ABCN

New line.1743020 		Geometry=11-ABCN Length=39.75725011 Units=m 		Bus1=C110660154	 Bus2=C110660516	! 11-ABCN

New line.1743021 		Length=41.37345445 Units=m 		Bus1=C110661358	 Bus2=C110661081 Linecode = 261-ABCN	! 261-ABCN  k

New line.1743022 		Geometry=11-ABCN Length=34.00781094 Units=m 		Bus1=C110661382	 Bus2=C110661519	! 11-ABCN

New line.1743023 Geometry=QUAD-50 Length=28.296 Units=m 	Bus1=C110661519 Bus2=CA744RES1 ! 10187761P 

New line.1743024 Geometry=QUAD-50 Length=26.136 Units=m 	Bus1=C110660247 Bus2=CA744RES2 ! 10538645P

New line.1743025 Geometry=QUAD-50 Length=29.268 Units=m 	Bus1=C110659628 Bus2=CA744RES3 ! 13575479P

New line.1743026 Geometry=QUAD-50 Length=19.008 Units=m 	Bus1=C110661082 Bus2=CA744RES4 ! 12478321P

New line.1743027 Geometry=QUAD-50 Length=15.876 Units=m 	Bus1=C110661358 Bus2=CA744RES5 ! 10381177P

New line.1743028 Geometry=QUAD-50 Length=21.6 Units=m 		Bus1=C110660247 Bus2=CA744RES6 ! 11007937P

New line.1743029 Geometry=QUAD-50 Length=34.128 Units=m 	Bus1=C110660254 Bus2=CA744RES7 ! 11541224P

New line.1743030 Geometry=QUAD-50 Length=18.576 Units=m 	Bus1=C110659973 Bus2=CA744RES8 ! 10897483P

New line.1743031 Geometry=QUAD-50 Length=20.412 Units=m 	Bus1=C110661249 Bus2=CA744RES9 ! 11939643P

New line.1743032 Geometry=QUAD-50 Length=17.28 Units=m 		Bus1=C110661082 Bus2=CA744RES10 ! 13641242P 

New line.1743033 Geometry=QUAD-50 Length=25.92 Units=m 		Bus1=C110661358 Bus2=CA744RES11 ! 10051029P

New line.1743034 Geometry=QUAD-50 Length=11.664 Units=m 	Bus1=C110659785 Bus2=CA744RES12 ! 11292950P

New line.1743035 Geometry=QUAD-50 Length=27.864 Units=m 	Bus1=C110659732 Bus2=CA744RES13 ! 11313450P

New line.1743036 Geometry=QUAD-50 Length=15.12 Units=m 		Bus1=C110661249 Bus2=CA744RES14 ! 11328083P

New line.1743037 Geometry=QUAD-50 Length=18.472 Units=m 	Bus1=C110661380 Bus2=CA744RES15 ! 14165452P

New line.1743038 Geometry=QUAD-50 Length=14.256 Units=m 	Bus1=C110660516 Bus2=CA744RES16 ! 11475450P

New line.1743039 Geometry=QUAD-50 Length=26.244 Units=m 	Bus1=C110661358 Bus2=CA744RES17 ! 13308411P

New line.1743040 Geometry=QUAD-50 Length=17.604 Units=m 	Bus1=C110659785 Bus2=CA744RES18 ! 12079133P

New line.1743041 Geometry=QUAD-50 Length=25.812 Units=m 	Bus1=C110659628 Bus2=CA744RES19 ! 10553288P

New line.1743042 Geometry=QUAD-50 Length=26.784 Units=m 	Bus1=C110659784 Bus2=CA744RES20 ! 13567190P 

New line.1743043 Geometry=QUAD-50 Length=34.128 Units=m 	Bus1=C110659628 Bus2=CA744RES21 ! 13406294P

New line.1743044 Geometry=QUAD-50 Length=29.268 Units=m 	Bus1=C110660154 Bus2=CA744RES22 ! 12066589P

New line.1743045 Geometry=QUAD-50 Length=29.7 Units=m 		Bus1=C110661379 Bus2=CA744RES23 ! 13414149P

New line.1743046 Geometry=QUAD-50 Length=16.416 Units=m 	Bus1=C110661134 Bus2=CA744RES24 ! 10713528P

New line.1743047 Geometry=QUAD-50 Length=18.468 Units=m 	Bus1=C110659973 Bus2=CA744RES25 ! 10381177P

New line.1743048 Geometry=QUAD-50 Length=17.388 Units=m 	Bus1=C110659785 Bus2=CA744RES26 ! 11007937P

New line.1743049 Geometry=QUAD-50 Length=26.46 Units=m 		Bus1=C110659732 Bus2=CA744RES27 ! 11541224P

New line.1743050 Geometry=QUAD-50 Length=23.112 Units=m 	Bus1=C110660715 Bus2=CA744RES28 ! 10897483P

New line.1743051 Geometry=QUAD-50 Length=19.548 Units=m 	Bus1=C110661134 Bus2=CA744RES29 ! 11939643P

New line.1743052 Geometry=QUAD-50 Length=21.168 Units=m 	Bus1=C110661379 Bus2=CA744RES30 ! 13641242P 

New line.1743053 Geometry=QUAD-50 Length=16.092 Units=m 	Bus1=C110660993 Bus2=CA744RES31 ! 10051029P

New line.1743054 Geometry=QUAD-50 Length=26.892 Units=m 	Bus1=C110661519 Bus2=CA744RES32 ! 11292950P

New line.1743055 Geometry=QUAD-50 Length=21.968 Units=m 	Bus1=C110660516 Bus2=CA744RES33 ! 11313450P

New line.1743056 Geometry=QUAD-50 Length=25.596 Units=m 	Bus1=C110659784 Bus2=CA744RES34 ! 11328083P

New line.1743057 Geometry=QUAD-50 Length=16.548 Units=m 	Bus1=C110659785 Bus2=CA744RES35 ! 14165452P

New line.1743058 Geometry=QUAD-50 Length=29.376 Units=m 	Bus1=C110659784 Bus2=CA744RES36 ! 11475450P

New line.1743059 Geometry=QUAD-50 Length=24.344 Units=m 	Bus1=C110659973 Bus2=CA744RES37 ! 13308411P

New line.1743060 Geometry=QUAD-50 Length=18.6 Units=m 		Bus1=C110661082 Bus2=CA744RES38 ! 12079133P

New line.1743061 Geometry=QUAD-50 Length=22.032 Units=m 	Bus1=C110660993 Bus2=CA744RES39 ! 10553288P

New line.1743062 Geometry=QUAD-50 Length=17.388 Units=m 	Bus1=C110659785 Bus2=CA744RES40 ! 13567190P 

New line.1743063 Geometry=QUAD-50 Length=22.248 Units=m 	Bus1=C110661358 Bus2=CA744RES41 ! 13406294P

New line.1743064 Geometry=QUAD-50 Length=27.324 Units=m 	Bus1=C110661358 Bus2=CA744RES42 ! 12066589P

New line.1743065 Geometry=QUAD-50 Length=22.68 Units=m 		Bus1=C110661134 Bus2=CA744RES43 ! 13414149P

New line.1743066 Geometry=QUAD-50 Length=28.188 Units=m 	Bus1=C110661378 Bus2=CA744RES44 ! 10713528P

New line.1743067 Geometry=QUAD-50 Length=24.516 Units=m 	Bus1=C110660715 Bus2=CA744RES45 ! 11313450P

New line.1743068 Geometry=QUAD-50 Length=20.52 Units=m 		Bus1=C110659973 Bus2=CA744RES46 ! 11328083P

New line.1743069 Geometry=QUAD-50 Length=29.592 Units=m 	Bus1=C110659784 Bus2=CA744RES47 ! 14165452P



!--------------Transformadores Trif�sicos--------------


New transformer.CA744 phases=3 Windings=2 XHL=3.5 %loadloss=1.7688 %noloadloss=0.391
~ wdg=1.000000 bus=MT1.1.2.3 conn=delta kV=13.800000 kVa=112.5 tap = 1.0
~ wdg=2.000000 bus=C110661358.1.2.3.0 conn=wye kV=0.220000 kVa=112.5 tap = 1.0


!---------------MFCR---------------
 
// New generator.PV1   bus1=CA746RES1.2.3   phases=1 kV=(0.220) kW=1 pf=1 model=1 status=variable daily=PVshape




!------------------Cargas-----------------

!carga de ilumina��o p�blica

New load.IP1   	phases=1 bus1=C110660715.1.2 	kv=0.22 kw=0.275  	pf=0.92 conn=delta status=variable daily=IP     
New load.IP2   	phases=1 bus1=C110660516.2.3 	kv=0.22 kw=0.275  	pf=0.92 conn=delta status=variable daily=IP    
New load.IP3   	phases=1 bus1=C110660247.3.1 	kv=0.22 kw=0.55 	pf=0.92 conn=delta status=variable daily=IP
New load.IP4   	phases=1 bus1=C110660254.1.2 	kv=0.22 kw=0.275  	pf=0.92 conn=delta status=variable daily=IP
New load.IP5   	phases=1 bus1=C110659784.2.3 	kv=0.22 kw=0.55 	pf=0.92 conn=delta status=variable daily=IP
!New load.IP6   	phases=1 bus1=C110659785.3.1 	kv=0.22 kw=0.55  	pf=0.92 conn=delta status=variable daily=IP
New load.IP7   	phases=1 bus1=C110659649.1.2 	kv=0.22 kw=0.275 	pf=0.92 conn=delta status=variable daily=IP
New load.IP8   	phases=1 bus1=C110660154.1.2 	kv=0.22 kw=0.55  	pf=0.92 conn=delta status=variable daily=IP
New load.IP9   	phases=1 bus1=C110659628.2.3 	kv=0.22 kw=0.55 	pf=0.92 conn=delta status=variable daily=IP
!New load.IP10   phases=1 bus1=C110659731.3.1 	kv=0.22 kw=0.55  	pf=0.92 conn=delta status=variable daily=IP
New load.IP11   phases=1 bus1=C110659732.1.2 	kv=0.22 kw=0.275  	pf=0.92 conn=delta status=variable daily=IP
New load.IP12   phases=1 bus1=C110659973.2.3 	kv=0.22 kw=0.55  	pf=0.92 conn=delta status=variable daily=IP    
!New load.IP13   phases=1 bus1=C110661249.3.1 	kv=0.22 kw=0.55 	pf=0.92 conn=delta status=variable daily=IP
!New load.IP14   phases=1 bus1=C110661249.1.2 	kv=0.22 kw=0.55  	pf=0.92 conn=delta status=variable daily=IP
!New load.IP15   phases=1 bus1=C110661249.2.3	kv=0.22 kw=0.55 	pf=0.92 conn=delta status=variable daily=IP
New load.IP16   phases=1 bus1=C110661134.3.1 	kv=0.22 kw=0.275 	pf=0.92 conn=delta status=variable daily=IP
New load.IP17   phases=1 bus1=C110661134.1.2 	kv=0.22 kw=0.275 	pf=0.92 conn=delta status=variable daily=IP
New load.IP18   phases=1 bus1=C110661134.1.2 	kv=0.22 kw=0.275  	pf=0.92 conn=delta status=variable daily=IP
!New load.IP19   phases=1 bus1=C110660993.2.3 	kv=0.22 kw=0.55 	pf=0.92 conn=delta status=variable daily=IP
New load.IP20   phases=1 bus1=C110661358.3.1 	kv=0.22 kw=0.275  	pf=0.92 conn=delta status=variable daily=IP
New load.IP21   phases=1 bus1=C110661081.1.2 	kv=0.22 kw=0.275  	pf=0.92 conn=delta status=variable daily=IP
!New load.IP22   phases=1 bus1=C110661082.2.3 	kv=0.22 kw=0.275  	pf=0.92 conn=delta status=variable daily=IP    
!New load.IP23   phases=1 bus1=C110661378.3.1 	kv=0.22 kw=0.275 	pf=0.92 conn=delta status=variable daily=IP
New load.IP24   phases=1 bus1=C110661379.1.2 	kv=0.22 kw=0.55  	pf=0.92 conn=delta status=variable daily=IP
!New load.IP25   phases=1 bus1=C110661380.2.3 	kv=0.22 kw=0.55 	pf=0.92 conn=delta status=variable daily=IP
New load.IP26   phases=1 bus1=C110661382.3.1 	kv=0.22 kw=0.275 	pf=0.92 conn=delta status=variable daily=IP
!New load.IP27   phases=1 bus1=C110661519.1.2 	kv=0.22 kw=0.275  	pf=0.92 conn=delta status=variable daily=IP

!carga residencial


!new load.carga1    phases=3 bus1=CA744RES1   kV=0.220  kW=2.84002976    	pf=0.92 model=1 conn=wye status=variable daily=RES-Tipo4     ! RES - Tipo4
new load.carga2    phases=3 bus1=CA744RES2   kV=0.220  kW=1.21622024      	pf=0.92 model=1 conn=wye status=variable daily=RES-Tipo1     ! RES - Tipo1
new load.carga3    phases=3 bus1=CA744RES3   kV=0.220  kW=2.6452381    		pf=0.92 model=1 conn=wye status=variable daily=RES-Tipo2	   ! RES - Tipo2
!new load.carga4    phases=3 bus1=CA744RES4   kV=0.220  kW=1.88571429    	pf=0.92 model=1 conn=wye status=variable daily=RES-Tipo2	   ! RES - Tipo2
new load.carga5    phases=3 bus1=CA744RES5   kV=0.220  kW=1.9921131   		pf=0.92 model=1 conn=wye status=variable daily=RES-Tipo1     ! RES - Tipo1
new load.carga6    phases=3 bus1=CA744RES6   kV=0.220  kW=1.31934524        pf=0.92 model=1 conn=wye status=variable daily=RES-Tipo2     ! RES - Tipo2
new load.carga7    phases=3 bus1=CA744RES7   kV=0.220  kW=0.53854167  		pf=0.92 model=1 conn=wye status=variable daily=RES-Tipo3	   ! RES - Tipo3    
new load.carga8    phases=3 bus1=CA744RES8   kV=0.220  kW=2.35550595  		pf=0.92 model=1 conn=wye status=variable daily=RES-Tipo8		! RES - Tipo8
!new load.carga9    phases=3 bus1=CA744RES9   kV=0.220  kW=4.2756  			pf=0.92 model=1 conn=wye status=variable daily=RES-Tipo2		! RES - Tipo2
!new load.carga10   phases=3 bus1=CA744RES10   kV=0.220  kW=3.1396	   		pf=0.92 model=1 conn=wye status=variable daily=RES-Tipo1		! RES - Tipo1
new load.carga11   phases=3 bus1=CA744RES11   kV=0.220  kW=2.4243  			pf=0.92 model=1 conn=wye status=variable daily=RES-Tipo2		! RES - Tipo2
!new load.carga12   phases=3 bus1=CA744RES12   kV=0.220  kW=3.3327381  		pf=0.92 model=1 conn=wye status=variable daily=RES-Tipo2		! RES - Tipo2
new load.carga13   phases=3 bus1=CA744RES13   kV=0.220  kW=0.790625    		pf=0.92 model=1 conn=wye status=variable daily=RES-Tipo2	    ! RES - Tipo2
!new load.carga14   phases=3 bus1=CA744RES14   kV=0.220  kW=2.6813    		pf=0.92 model=1 conn=wye status=variable daily=RES-Tipo2	    ! RES - Tipo2
!new load.carga15   phases=3 bus1=CA744RES15   kV=0.220  kW=1.05580357    	pf=0.92 model=1 conn=wye status=variable daily=RES-Tipo1     ! RES - Tipo1
new load.carga16   phases=3 bus1=CA744RES16   kV=0.220  kW=1.54360119       pf=0.92 model=1 conn=wye status=variable daily=COM-Tipo4      ! COM - Tipo4
new load.carga17   phases=3 bus1=CA744RES17   kV=0.220  kW=4.5981 			pf=0.92 model=1 conn=wye status=variable daily=RES-Tipo2		! RES - Tipo2
!new load.carga18   phases=3 bus1=CA744RES18   kV=0.220  kW=1.9201			pf=0.92 model=1 conn=wye status=variable daily=RES-Tipo2		! RES - Tipo2
new load.carga19   phases=3 bus1=CA744RES19   kV=0.220  kW=1.303  			pf=0.92 model=1 conn=wye status=variable daily=RES-Tipo1		! RES - Tipo1
new load.carga20   phases=3 bus1=CA744RES20   kV=0.220  kW=3.3966   		pf=0.92 model=1 conn=wye status=variable daily=RES-Tipo1		! RES - Tipo1
new load.carga21   phases=3 bus1=CA744RES21   kV=0.220  kW=3.0 			    pf=0.92 model=1 conn=wye status=variable daily=COM-Tipo4		! COM - Tipo4
new load.carga22   phases=3 bus1=CA744RES22   kV=0.220  kW=1.57142857  		pf=0.92 model=1 conn=wye status=variable daily=RES-Tipo2		! RES - Tipo2
new load.carga23   phases=3 bus1=CA744RES23   kV=0.220  kW=0.93630952   	pf=0.92 model=1 conn=wye status=variable daily=RES-Tipo1	    ! RES - Tipo1
new load.carga24   phases=3 bus1=CA744RES24   kV=0.220  kW=1.5518    		pf=0.92 model=1 conn=wye status=variable daily=RES-Tipo2	    ! RES - Tipo2
new load.carga25   phases=3 bus1=CA744RES25   kV=0.220  kW=1.8792     		pf=0.92 model=1 conn=wye status=variable daily=RES-Tipo2      ! RES - Tipo2
!new load.carga26   phases=3 bus1=CA744RES26   kV=0.220  kW=3.4719        	pf=0.92 model=1 conn=wye status=variable daily=RES-Tipo1     	! RES - Tipo1
new load.carga27   phases=3 bus1=CA744RES27   kV=0.220  kW=1.8481  			pf=0.92 model=1 conn=wye status=variable daily=RES-Tipo1		! RES - Tipo1
new load.carga28   phases=3 bus1=CA744RES28   kV=0.220  kW=0.3716  			pf=0.92 model=1 conn=wye status=variable daily=RES-Tipo10		! RES - Tipo10
new load.carga29   phases=3 bus1=CA744RES29   kV=0.220  kW=2.2131  			pf=0.92 model=1 conn=wye status=variable daily=RES-Tipo2		! RES - Tipo2
new load.carga30   phases=3 bus1=CA744RES30   kV=0.220  kW=0.4829  			pf=0.92 model=1 conn=wye status=variable daily=RES-Tipo3		! RES - Tipo3
!new load.carga31   phases=3 bus1=CA744RES31   kV=0.220  kW=3.1625  			pf=0.92 model=1 conn=wye status=variable daily=RES-Tipo1		! RES - Tipo1
!new load.carga32   phases=3 bus1=CA744RES32   kV=0.220  kW=2.2475  			pf=0.92 model=1 conn=wye status=variable daily=RES-Tipo2		! RES - Tipo2
new load.carga33   phases=3 bus1=CA744RES33   kV=0.220  kW=2.36860119  		pf=0.92 model=1 conn=wye status=variable daily=RES-Tipo2	    ! RES - Tipo2
new load.carga34   phases=3 bus1=CA744RES34   kV=0.220  kW=1.614   			pf=0.92 model=1 conn=wye status=variable daily=RES-Tipo2	    ! RES - Tipo2
!new load.carga35   phases=3 bus1=CA744RES35   kV=0.220  kW=3.01354167    	pf=0.92 model=1 conn=wye status=variable daily=RES-Tipo2      ! RES - Tipo2
new load.carga36   phases=3 bus1=CA744RES36   kV=0.220  kW=3.6438       	pf=0.92 model=1 conn=wye status=variable daily=RES-Tipo2     	! RES - Tipo2
new load.carga37   phases=3 bus1=CA744RES37   kV=0.220  kW=2.49300595 		pf=0.92 model=1 conn=wye status=variable daily=RES-Tipo1		! RES - Tipo1
!new load.carga38   phases=3 bus1=CA744RES38   kV=0.220  kW=2.48154762 		pf=0.92 model=1 conn=wye status=variable daily=COM-Tipo1		! COM - Tipo1
!new load.carga39   phases=3 bus1=CA744RES39   kV=0.220  kW=1.9234  			pf=0.92 model=1 conn=wye status=variable daily=RES-Tipo2		! RES - Tipo2
!new load.carga40   phases=3 bus1=CA744RES40   kV=0.220  kW=2.5765   		pf=0.92 model=1 conn=wye status=variable daily=RES-Tipo2		! RES - Tipo2
new load.carga41   phases=3 bus1=CA744RES41   kV=0.220  kW=2.4603 			pf=0.92 model=1 conn=wye status=variable daily=RES-Tipo1		! RES - Tipo1
new load.carga42   phases=3 bus1=CA744RES42   kV=0.220  kW=1.6631  			pf=0.92 model=1 conn=wye status=variable daily=RES-Tipo2		! RES - Tipo2
new load.carga43   phases=3 bus1=CA744RES43   kV=0.220  kW=1.9725			pf=0.92 model=1 conn=wye status=variable daily=RES-Tipo3	    ! RES - Tipo3
!new load.carga44   phases=3 bus1=CA744RES44   kV=0.220  kW=0.75952381    	pf=0.92 model=1 conn=wye status=variable daily=RES-Tipo9	    ! RES - Tipo9
new load.carga45   phases=3 bus1=CA744RES45   kV=0.220  kW=2.2213      		pf=0.92 model=1 conn=wye status=variable daily=RES-Tipo2      ! RES - Tipo2
new load.carga46   phases=3 bus1=CA744RES46   kV=0.220  kW=3.2362       	pf=0.92 model=1 conn=wye status=variable daily=RES-Tipo2     	! RES - Tipo2
new load.carga47   phases=3 bus1=CA744RES47   kV=0.220  kW=0.2 				pf=0.92 model=1 conn=wye status=variable daily=COM-Tipo8		! COM - Tipo8


!------------------Medidores-----------------

!new energymeter.busbar 		 element=transformer.CA744   	terminal=1
!new monitor.trafop           element=transformer.CA744    	terminal=1   mode=1  ppolar=yes
!new monitor.trafop2          element=transformer.CA744    	terminal=1   mode=1  ppolar=no
!new monitor.trafo_v       	 element=transformer.CA744     	terminal=2   mode=0  ppolar=no


set voltagebases=[13.8 0.220]
calcvoltagebases


batchedit load..* Vmin=0.7 Vmaxpu=1.3 Vminpu=0.70

!solve

!------------- Plots----------------------------

!export monitors carga1
!plot monitor object=carga2 channels=(1 3 5) bases = [127 127 127]

!export monitors carga25
!plot monitor object=carga25 channels=(1 3 5) bases = [127 127 127]

!export monitors carga47
!plot monitor object=carga47 channels=(1 3 5) bases = [127 127 127]

!export monitors carga2
!export monitors carga25
!export monitors carga47
